REMARK  Name = 
REMARK  4 active torsions:
REMARK  status: ('A' for Active; 'I' for Inactive)
REMARK    1  A    between atoms: C_1  and  C_2
REMARK    2  A    between atoms: C_4  and  C_5
REMARK    3  A    between atoms: C_12  and  C_13
REMARK    4  A    between atoms: C_14  and  O_15
REMARK                            x       y       z     vdW  Elec       q    Type
REMARK                         _______ _______ _______ _____ _____    ______ ____
ROOT
ATOM      1  C   UNL     1      -2.571   0.547   0.004  0.00  0.00    +0.000 C 
ATOM      2  C   UNL     1      -1.212  -0.091   0.002  0.00  0.00    +0.000 A 
ATOM      3  C   UNL     1      -1.093  -1.487   0.004  0.00  0.00    +0.000 A 
ATOM      4  C   UNL     1       0.163  -2.114   0.007  0.00  0.00    +0.000 A 
ATOM      5  C   UNL     1       1.310  -1.303   0.020  0.00  0.00    +0.000 A 
ATOM      6  C   UNL     1       1.220   0.100   0.010  0.00  0.00    +0.000 A 
ATOM      7  C   UNL     1       2.480   0.918  -0.016  0.00  0.00    +0.000 C 
ATOM      8  C   UNL     1      -0.051   0.690   0.005  0.00  0.00    +0.000 A 
ENDROOT
BRANCH   4   9
ATOM      9  C   UNL     1       0.263  -3.581   0.001  0.00  0.00    +0.000 A 
ATOM     10  C   UNL     1      -0.602  -4.421  -0.588  0.00  0.00    +0.000 A 
ATOM     11  S   UNL     1      -0.143  -6.086  -0.372  0.00  0.00    +0.000 S 
ATOM     12  C   UNL     1       1.280  -5.609   0.556  0.00  0.00    +0.000 A 
ATOM     13  O   UNL     1       2.091  -6.377   1.047  0.00  0.00    +0.000 OA
ATOM     14  N   UNL     1       1.298  -4.239   0.621  0.00  0.00    +0.000 N 
ATOM     15  H   UNL     1       2.030  -3.776   1.138  0.00  0.00    +0.000 HD
ENDBRANCH   4   9
BRANCH   8  16
ATOM     16  O   UNL     1      -0.221   2.047  -0.002  0.00  0.00    +0.000 OA
ATOM     17  H   UNL     1       0.643   2.487   0.017  0.00  0.00    +0.000 HD
ENDBRANCH   8  16
TORSDOF 2
